*SPEF "ieee 1481-1999"
*DESIGN "RAM32"
*DATE "11:11:11 Fri 11 11, 1111"
*VENDOR "OpenRCX"
*PROGRAM "Parallel Extraction"
*VERSION "1.0"
*DESIGN_FLOW "NAME_SCOPE LOCAL" "PIN_CAP NONE"
*DIVIDER /
*DELIMITER :
*BUS_DELIMITER []
*T_UNIT 1 NS
*C_UNIT 1 PF
*R_UNIT 1 OHM
*L_UNIT 1 HENRY

*NAME_MAP
*1 A0[0]
*2 A0[1]
*3 A0[2]
*4 A0[3]
*5 A0[4]
*6 CLK
*7 Di0[0]
*8 Di0[10]
*9 Di0[11]
*10 Di0[12]
*11 Di0[13]
*12 Di0[14]
*13 Di0[15]
*14 Di0[16]
*15 Di0[17]
*16 Di0[18]
*17 Di0[19]
*18 Di0[1]
*19 Di0[20]
*20 Di0[21]
*21 Di0[22]
*22 Di0[23]
*23 Di0[24]
*24 Di0[25]
*25 Di0[26]
*26 Di0[27]
*27 Di0[28]
*28 Di0[29]
*29 Di0[2]
*30 Di0[30]
*31 Di0[31]
*32 Di0[3]
*33 Di0[4]
*34 Di0[5]
*35 Di0[6]
*36 Di0[7]
*37 Di0[8]
*38 Di0[9]
*39 Do0MUX\.X\[0\]
*40 Do0MUX\.X\[10\]
*41 Do0MUX\.X\[11\]
*42 Do0MUX\.X\[12\]
*43 Do0MUX\.X\[13\]
*44 Do0MUX\.X\[14\]
*45 Do0MUX\.X\[15\]
*46 Do0MUX\.X\[16\]
*47 Do0MUX\.X\[17\]
*48 Do0MUX\.X\[18\]
*49 Do0MUX\.X\[19\]
*50 Do0MUX\.X\[1\]
*51 Do0MUX\.X\[20\]
*52 Do0MUX\.X\[21\]
*53 Do0MUX\.X\[22\]
*54 Do0MUX\.X\[23\]
*55 Do0MUX\.X\[24\]
*56 Do0MUX\.X\[25\]
*57 Do0MUX\.X\[26\]
*58 Do0MUX\.X\[27\]
*59 Do0MUX\.X\[28\]
*60 Do0MUX\.X\[29\]
*61 Do0MUX\.X\[2\]
*62 Do0MUX\.X\[30\]
*63 Do0MUX\.X\[31\]
*64 Do0MUX\.X\[3\]
*65 Do0MUX\.X\[4\]
*66 Do0MUX\.X\[5\]
*67 Do0MUX\.X\[6\]
*68 Do0MUX\.X\[7\]
*69 Do0MUX\.X\[8\]
*70 Do0MUX\.X\[9\]
*71 EN0
*74 WE0[0]
*75 WE0[1]
*76 WE0[2]
*77 WE0[3]
*78 A0BUF\[0\]\.X
*79 A0BUF\[1\]\.X
*80 A0BUF\[2\]\.X
*81 A0BUF\[3\]\.X
*82 A0BUF\[4\]\.X
*83 DEC0\.EN
*84 DEC0\.SEL\[0\]
*85 DEC0\.SEL\[1\]
*86 DIBUF\[0\]\.X
*87 DIBUF\[10\]\.X
*88 DIBUF\[11\]\.X
*89 DIBUF\[12\]\.X
*90 DIBUF\[13\]\.X
*91 DIBUF\[14\]\.X
*92 DIBUF\[15\]\.X
*93 DIBUF\[16\]\.X
*94 DIBUF\[17\]\.X
*95 DIBUF\[18\]\.X
*96 DIBUF\[19\]\.X
*97 DIBUF\[1\]\.X
*98 DIBUF\[20\]\.X
*99 DIBUF\[21\]\.X
*100 DIBUF\[22\]\.X
*101 DIBUF\[23\]\.X
*102 DIBUF\[24\]\.X
*103 DIBUF\[25\]\.X
*104 DIBUF\[26\]\.X
*105 DIBUF\[27\]\.X
*106 DIBUF\[28\]\.X
*107 DIBUF\[29\]\.X
*108 DIBUF\[2\]\.X
*109 DIBUF\[30\]\.X
*110 DIBUF\[31\]\.X
*111 DIBUF\[3\]\.X
*112 DIBUF\[4\]\.X
*113 DIBUF\[5\]\.X
*114 DIBUF\[6\]\.X
*115 DIBUF\[7\]\.X
*116 DIBUF\[8\]\.X
*117 DIBUF\[9\]\.X
*118 Do0MUX\.A0\[0\]
*119 Do0MUX\.A0\[10\]
*120 Do0MUX\.A0\[11\]
*121 Do0MUX\.A0\[12\]
*122 Do0MUX\.A0\[13\]
*123 Do0MUX\.A0\[14\]
*124 Do0MUX\.A0\[15\]
*125 Do0MUX\.A0\[16\]
*126 Do0MUX\.A0\[17\]
*127 Do0MUX\.A0\[18\]
*128 Do0MUX\.A0\[19\]
*129 Do0MUX\.A0\[1\]
*130 Do0MUX\.A0\[20\]
*131 Do0MUX\.A0\[21\]
*132 Do0MUX\.A0\[22\]
*133 Do0MUX\.A0\[23\]
*134 Do0MUX\.A0\[24\]
*135 Do0MUX\.A0\[25\]
*136 Do0MUX\.A0\[26\]
*137 Do0MUX\.A0\[27\]
*138 Do0MUX\.A0\[28\]
*139 Do0MUX\.A0\[29\]
*140 Do0MUX\.A0\[2\]
*141 Do0MUX\.A0\[30\]
*142 Do0MUX\.A0\[31\]
*143 Do0MUX\.A0\[3\]
*144 Do0MUX\.A0\[4\]
*145 Do0MUX\.A0\[5\]
*146 Do0MUX\.A0\[6\]
*147 Do0MUX\.A0\[7\]
*148 Do0MUX\.A0\[8\]
*149 Do0MUX\.A0\[9\]
*150 Do0MUX\.A1\[0\]
*151 Do0MUX\.A1\[10\]
*152 Do0MUX\.A1\[11\]
*153 Do0MUX\.A1\[12\]
*154 Do0MUX\.A1\[13\]
*155 Do0MUX\.A1\[14\]
*156 Do0MUX\.A1\[15\]
*157 Do0MUX\.A1\[16\]
*158 Do0MUX\.A1\[17\]
*159 Do0MUX\.A1\[18\]
*160 Do0MUX\.A1\[19\]
*161 Do0MUX\.A1\[1\]
*162 Do0MUX\.A1\[20\]
*163 Do0MUX\.A1\[21\]
*164 Do0MUX\.A1\[22\]
*165 Do0MUX\.A1\[23\]
*166 Do0MUX\.A1\[24\]
*167 Do0MUX\.A1\[25\]
*168 Do0MUX\.A1\[26\]
*169 Do0MUX\.A1\[27\]
*170 Do0MUX\.A1\[28\]
*171 Do0MUX\.A1\[29\]
*172 Do0MUX\.A1\[2\]
*173 Do0MUX\.A1\[30\]
*174 Do0MUX\.A1\[31\]
*175 Do0MUX\.A1\[3\]
*176 Do0MUX\.A1\[4\]
*177 Do0MUX\.A1\[5\]
*178 Do0MUX\.A1\[6\]
*179 Do0MUX\.A1\[7\]
*180 Do0MUX\.A1\[8\]
*181 Do0MUX\.A1\[9\]
*182 Do0MUX\.SEL\[0\]
*183 Do0MUX\.SEL\[1\]
*184 Do0MUX\.SEL\[2\]
*185 Do0MUX\.SEL\[3\]
*186 SLICE_16\[0\]\.RAM16\.A0BUF\[0\]\.X
*187 SLICE_16\[0\]\.RAM16\.A0BUF\[1\]\.X
*188 SLICE_16\[0\]\.RAM16\.A0BUF\[2\]\.X
*189 SLICE_16\[0\]\.RAM16\.A0BUF\[3\]\.X
*190 SLICE_16\[0\]\.RAM16\.BYTE\[0\]\.FLOATBUF0\[0\]\.A
*191 SLICE_16\[0\]\.RAM16\.BYTE\[0\]\.FLOATBUF0\[0\]\.TE_B
*192 SLICE_16\[0\]\.RAM16\.BYTE\[0\]\.FLOATBUF0\[0\]\.Z
*193 SLICE_16\[0\]\.RAM16\.BYTE\[0\]\.FLOATBUF0\[1\]\.Z
*194 SLICE_16\[0\]\.RAM16\.BYTE\[0\]\.FLOATBUF0\[2\]\.Z
*195 SLICE_16\[0\]\.RAM16\.BYTE\[0\]\.FLOATBUF0\[3\]\.Z
*196 SLICE_16\[0\]\.RAM16\.BYTE\[0\]\.FLOATBUF0\[4\]\.Z
*197 SLICE_16\[0\]\.RAM16\.BYTE\[0\]\.FLOATBUF0\[5\]\.Z
*198 SLICE_16\[0\]\.RAM16\.BYTE\[0\]\.FLOATBUF0\[6\]\.Z
*199 SLICE_16\[0\]\.RAM16\.BYTE\[0\]\.FLOATBUF0\[7\]\.Z
*200 SLICE_16\[0\]\.RAM16\.BYTE\[1\]\.FLOATBUF0\[10\]\.A
*201 SLICE_16\[0\]\.RAM16\.BYTE\[1\]\.FLOATBUF0\[10\]\.TE_B
*202 SLICE_16\[0\]\.RAM16\.BYTE\[1\]\.FLOATBUF0\[10\]\.Z
*203 SLICE_16\[0\]\.RAM16\.BYTE\[1\]\.FLOATBUF0\[11\]\.Z
*204 SLICE_16\[0\]\.RAM16\.BYTE\[1\]\.FLOATBUF0\[12\]\.Z
*205 SLICE_16\[0\]\.RAM16\.BYTE\[1\]\.FLOATBUF0\[13\]\.Z
*206 SLICE_16\[0\]\.RAM16\.BYTE\[1\]\.FLOATBUF0\[14\]\.Z
*207 SLICE_16\[0\]\.RAM16\.BYTE\[1\]\.FLOATBUF0\[15\]\.Z
*208 SLICE_16\[0\]\.RAM16\.BYTE\[1\]\.FLOATBUF0\[8\]\.Z
*209 SLICE_16\[0\]\.RAM16\.BYTE\[1\]\.FLOATBUF0\[9\]\.Z
*210 SLICE_16\[0\]\.RAM16\.BYTE\[2\]\.FLOATBUF0\[16\]\.A
*211 SLICE_16\[0\]\.RAM16\.BYTE\[2\]\.FLOATBUF0\[16\]\.TE_B
*212 SLICE_16\[0\]\.RAM16\.BYTE\[2\]\.FLOATBUF0\[16\]\.Z
*213 SLICE_16\[0\]\.RAM16\.BYTE\[2\]\.FLOATBUF0\[17\]\.Z
*214 SLICE_16\[0\]\.RAM16\.BYTE\[2\]\.FLOATBUF0\[18\]\.Z
*215 SLICE_16\[0\]\.RAM16\.BYTE\[2\]\.FLOATBUF0\[19\]\.Z
*216 SLICE_16\[0\]\.RAM16\.BYTE\[2\]\.FLOATBUF0\[20\]\.Z
*217 SLICE_16\[0\]\.RAM16\.BYTE\[2\]\.FLOATBUF0\[21\]\.Z
*218 SLICE_16\[0\]\.RAM16\.BYTE\[2\]\.FLOATBUF0\[22\]\.Z
*219 SLICE_16\[0\]\.RAM16\.BYTE\[2\]\.FLOATBUF0\[23\]\.Z
*220 SLICE_16\[0\]\.RAM16\.BYTE\[3\]\.FLOATBUF0\[24\]\.A
*221 SLICE_16\[0\]\.RAM16\.BYTE\[3\]\.FLOATBUF0\[24\]\.TE_B
*222 SLICE_16\[0\]\.RAM16\.BYTE\[3\]\.FLOATBUF0\[24\]\.Z
*223 SLICE_16\[0\]\.RAM16\.BYTE\[3\]\.FLOATBUF0\[25\]\.Z
*224 SLICE_16\[0\]\.RAM16\.BYTE\[3\]\.FLOATBUF0\[26\]\.Z
*225 SLICE_16\[0\]\.RAM16\.BYTE\[3\]\.FLOATBUF0\[27\]\.Z
*226 SLICE_16\[0\]\.RAM16\.BYTE\[3\]\.FLOATBUF0\[28\]\.Z
*227 SLICE_16\[0\]\.RAM16\.BYTE\[3\]\.FLOATBUF0\[29\]\.Z
*228 SLICE_16\[0\]\.RAM16\.BYTE\[3\]\.FLOATBUF0\[30\]\.Z
*229 SLICE_16\[0\]\.RAM16\.BYTE\[3\]\.FLOATBUF0\[31\]\.Z
*230 SLICE_16\[0\]\.RAM16\.CLKBUF\.X
*231 SLICE_16\[0\]\.RAM16\.DEC0\.EN
*232 SLICE_16\[0\]\.RAM16\.DEC0\.SEL\[0\]
*233 SLICE_16\[0\]\.RAM16\.DEC0\.SEL\[1\]
*234 SLICE_16\[0\]\.RAM16\.Do0_REG\.CLKBUF\[0\]
*235 SLICE_16\[0\]\.RAM16\.Do0_REG\.CLKBUF\[1\]
*236 SLICE_16\[0\]\.RAM16\.Do0_REG\.CLKBUF\[2\]
*237 SLICE_16\[0\]\.RAM16\.Do0_REG\.CLKBUF\[3\]
*238 SLICE_16\[0\]\.RAM16\.Do0_REG\.CLK_buf
*239 SLICE_16\[0\]\.RAM16\.SLICE\[0\]\.RAM8\.CLKBUF\.X
*240 SLICE_16\[0\]\.RAM16\.SLICE\[0\]\.RAM8\.DEC0\.A_buf\[0\]
*241 SLICE_16\[0\]\.RAM16\.SLICE\[0\]\.RAM8\.DEC0\.A_buf\[1\]
*242 SLICE_16\[0\]\.RAM16\.SLICE\[0\]\.RAM8\.DEC0\.A_buf\[2\]
*243 SLICE_16\[0\]\.RAM16\.SLICE\[0\]\.RAM8\.DEC0\.EN_buf
*244 SLICE_16\[0\]\.RAM16\.SLICE\[0\]\.RAM8\.DEC0\.SEL\[0\]
*245 SLICE_16\[0\]\.RAM16\.SLICE\[0\]\.RAM8\.DEC0\.SEL\[1\]
*246 SLICE_16\[0\]\.RAM16\.SLICE\[0\]\.RAM8\.DEC0\.SEL\[2\]
*247 SLICE_16\[0\]\.RAM16\.SLICE\[0\]\.RAM8\.DEC0\.SEL\[3\]
*248 SLICE_16\[0\]\.RAM16\.SLICE\[0\]\.RAM8\.DEC0\.SEL\[4\]
*249 SLICE_16\[0\]\.RAM16\.SLICE\[0\]\.RAM8\.DEC0\.SEL\[5\]
*250 SLICE_16\[0\]\.RAM16\.SLICE\[0\]\.RAM8\.DEC0\.SEL\[6\]
*251 SLICE_16\[0\]\.RAM16\.SLICE\[0\]\.RAM8\.DEC0\.SEL\[7\]
*252 SLICE_16\[0\]\.RAM16\.SLICE\[0\]\.RAM8\.WE0\[0\]
*253 SLICE_16\[0\]\.RAM16\.SLICE\[0\]\.RAM8\.WE0\[1\]
*254 SLICE_16\[0\]\.RAM16\.SLICE\[0\]\.RAM8\.WE0\[2\]
*255 SLICE_16\[0\]\.RAM16\.SLICE\[0\]\.RAM8\.WE0\[3\]
*256 SLICE_16\[0\]\.RAM16\.SLICE\[0\]\.RAM8\.WE0_buf\[0\]
*257 SLICE_16\[0\]\.RAM16\.SLICE\[0\]\.RAM8\.WE0_buf\[1\]
*258 SLICE_16\[0\]\.RAM16\.SLICE\[0\]\.RAM8\.WE0_buf\[2\]
*259 SLICE_16\[0\]\.RAM16\.SLICE\[0\]\.RAM8\.WE0_buf\[3\]
*260 SLICE_16\[0\]\.RAM16\.SLICE\[0\]\.RAM8\.WORD\[0\]\.W\.BYTE\[0\]\.B\.CLK
*261 SLICE_16\[0\]\.RAM16\.SLICE\[0\]\.RAM8\.WORD\[0\]\.W\.BYTE\[0\]\.B\.CLK_B
*262 SLICE_16\[0\]\.RAM16\.SLICE\[0\]\.RAM8\.WORD\[0\]\.W\.BYTE\[0\]\.B\.GCLK
*263 SLICE_16\[0\]\.RAM16\.SLICE\[0\]\.RAM8\.WORD\[0\]\.W\.BYTE\[0\]\.B\.Q_WIRE\[0\]
*264 SLICE_16\[0\]\.RAM16\.SLICE\[0\]\.RAM8\.WORD\[0\]\.W\.BYTE\[0\]\.B\.Q_WIRE\[1\]
*265 SLICE_16\[0\]\.RAM16\.SLICE\[0\]\.RAM8\.WORD\[0\]\.W\.BYTE\[0\]\.B\.Q_WIRE\[2\]
*266 SLICE_16\[0\]\.RAM16\.SLICE\[0\]\.RAM8\.WORD\[0\]\.W\.BYTE\[0\]\.B\.Q_WIRE\[3\]
*267 SLICE_16\[0\]\.RAM16\.SLICE\[0\]\.RAM8\.WORD\[0\]\.W\.BYTE\[0\]\.B\.Q_WIRE\[4\]
*268 SLICE_16\[0\]\.RAM16\.SLICE\[0\]\.RAM8\.WORD\[0\]\.W\.BYTE\[0\]\.B\.Q_WIRE\[5\]
*269 SLICE_16\[0\]\.RAM16\.SLICE\[0\]\.RAM8\.WORD\[0\]\.W\.BYTE\[0\]\.B\.Q_WIRE\[6\]
*270 SLICE_16\[0\]\.RAM16\.SLICE\[0\]\.RAM8\.WORD\[0\]\.W\.BYTE\[0\]\.B\.Q_WIRE\[7\]
*271 SLICE_16\[0\]\.RAM16\.SLICE\[0\]\.RAM8\.WORD\[0\]\.W\.BYTE\[0\]\.B\.SEL0
*272 SLICE_16\[0\]\.RAM16\.SLICE\[0\]\.RAM8\.WORD\[0\]\.W\.BYTE\[0\]\.B\.SEL0_B
*273 SLICE_16\[0\]\.RAM16\.SLICE\[0\]\.RAM8\.WORD\[0\]\.W\.BYTE\[0\]\.B\.WE0_WIRE
*274 SLICE_16\[0\]\.RAM16\.SLICE\[0\]\.RAM8\.WORD\[0\]\.W\.BYTE\[1\]\.B\.CLK_B
*275 SLICE_16\[0\]\.RAM16\.SLICE\[0\]\.RAM8\.WORD\[0\]\.W\.BYTE\[1\]\.B\.GCLK
*276 SLICE_16\[0\]\.RAM16\.SLICE\[0\]\.RAM8\.WORD\[0\]\.W\.BYTE\[1\]\.B\.Q_WIRE\[0\]
*277 SLICE_16\[0\]\.RAM16\.SLICE\[0\]\.RAM8\.WORD\[0\]\.W\.BYTE\[1\]\.B\.Q_WIRE\[1\]
*278 SLICE_16\[0\]\.RAM16\.SLICE\[0\]\.RAM8\.WORD\[0\]\.W\.BYTE\[1\]\.B\.Q_WIRE\[2\]
*279 SLICE_16\[0\]\.RAM16\.SLICE\[0\]\.RAM8\.WORD\[0\]\.W\.BYTE\[1\]\.B\.Q_WIRE\[3\]
*280 SLICE_16\[0\]\.RAM16\.SLICE\[0\]\.RAM8\.WORD\[0\]\.W\.BYTE\[1\]\.B\.Q_WIRE\[4\]
*281 SLICE_16\[0\]\.RAM16\.SLICE\[0\]\.RAM8\.WORD\[0\]\.W\.BYTE\[1\]\.B\.Q_WIRE\[5\]
*282 SLICE_16\[0\]\.RAM16\.SLICE\[0\]\.RAM8\.WORD\[0\]\.W\.BYTE\[1\]\.B\.Q_WIRE\[6\]
*283 SLICE_16\[0\]\.RAM16\.SLICE\[0\]\.RAM8\.WORD\[0\]\.W\.BYTE\[1\]\.B\.Q_WIRE\[7\]
*284 SLICE_16\[0\]\.RAM16\.SLICE\[0\]\.RAM8\.WORD\[0\]\.W\.BYTE\[1\]\.B\.SEL0_B
*285 SLICE_16\[0\]\.RAM16\.SLICE\[0\]\.RAM8\.WORD\[0\]\.W\.BYTE\[1\]\.B\.WE0_WIRE
*286 SLICE_16\[0\]\.RAM16\.SLICE\[0\]\.RAM8\.WORD\[0\]\.W\.BYTE\[2\]\.B\.CLK_B
*287 SLICE_16\[0\]\.RAM16\.SLICE\[0\]\.RAM8\.WORD\[0\]\.W\.BYTE\[2\]\.B\.GCLK
*288 SLICE_16\[0\]\.RAM16\.SLICE\[0\]\.RAM8\.WORD\[0\]\.W\.BYTE\[2\]\.B\.Q_WIRE\[0\]
*289 SLICE_16\[0\]\.RAM16\.SLICE\[0\]\.RAM8\.WORD\[0\]\.W\.BYTE\[2\]\.B\.Q_WIRE\[1\]
*290 SLICE_16\[0\]\.RAM16\.SLICE\[0\]\.RAM8\.WORD\[0\]\.W\.BYTE\[2\]\.B\.Q_WIRE\[2\]
*291 SLICE_16\[0\]\.RAM16\.SLICE\[0\]\.RAM8\.WORD\[0\]\.W\.BYTE\[2\]\.B\.Q_WIRE\[3\]
*292 SLICE_16\[0\]\.RAM16\.SLICE\[0\]\.RAM8\.WORD\[0\]\.W\.BYTE\[2\]\.B\.Q_WIRE\[4\]
*293 SLICE_16\[0\]\.RAM16\.SLICE\[0\]\.RAM8\.WORD\[0\]\.W\.BYTE\[2\]\.B\.Q_WIRE\[5\]
*294 SLICE_16\[0\]\.RAM16\.SLICE\[0\]\.RAM8\.WORD\[0\]\.W\.BYTE\[2\]\.B\.Q_WIRE\[6\]
*295 SLICE_16\[0\]\.RAM16\.SLICE\[0\]\.RAM8\.WORD\[0\]\.W\.BYTE\[2\]\.B\.Q_WIRE\[7\]
*296 SLICE_16\[0\]\.RAM16\.SLICE\[0\]\.RAM8\.WORD\[0\]\.W\.BYTE\[2\]\.B\.SEL0_B
*297 SLICE_16\[0\]\.RAM16\.SLICE\[0\]\.RAM8\.WORD\[0\]\.W\.BYTE\[2\]\.B\.WE0_WIRE
*298 SLICE_16\[0\]\.RAM16\.SLICE\[0\]\.RAM8\.WORD\[0\]\.W\.BYTE\[3\]\.B\.CLK_B
*299 SLICE_16\[0\]\.RAM16\.SLICE\[0\]\.RAM8\.WORD\[0\]\.W\.BYTE\[3\]\.B\.GCLK
*300 SLICE_16\[0\]\.RAM16\.SLICE\[0\]\.RAM8\.WORD\[0\]\.W\.BYTE\[3\]\.B\.Q_WIRE\[0\]
*301 SLICE_16\[0\]\.RAM16\.SLICE\[0\]\.RAM8\.WORD\[0\]\.W\.BYTE\[3\]\.B\.Q_WIRE\[1\]
*302 SLICE_16\[0\]\.RAM16\.SLICE\[0\]\.RAM8\.WORD\[0\]\.W\.BYTE\[3\]\.B\.Q_WIRE\[2\]
*303 SLICE_16\[0\]\.RAM16\.SLICE\[0\]\.RAM8\.WORD\[0\]\.W\.BYTE\[3\]\.B\.Q_WIRE\[3\]
*304 SLICE_16\[0\]\.RAM16\.SLICE\[0\]\.RAM8\.WORD\[0\]\.W\.BYTE\[3\]\.B\.Q_WIRE\[4\]
*305 SLICE_16\[0\]\.RAM16\.SLICE\[0\]\.RAM8\.WORD\[0\]\.W\.BYTE\[3\]\.B\.Q_WIRE\[5\]
*306 SLICE_16\[0\]\.RAM16\.SLICE\[0\]\.RAM8\.WORD\[0\]\.W\.BYTE\[3\]\.B\.Q_WIRE\[6\]
*307 SLICE_16\[0\]\.RAM16\.SLICE\[0\]\.RAM8\.WORD\[0\]\.W\.BYTE\[3\]\.B\.Q_WIRE\[7\]
*308 SLICE_16\[0\]\.RAM16\.SLICE\[0\]\.RAM8\.WORD\[0\]\.W\.BYTE\[3\]\.B\.SEL0_B
*309 SLICE_16\[0\]\.RAM16\.SLICE\[0\]\.RAM8\.WORD\[0\]\.W\.BYTE\[3\]\.B\.WE0_WIRE
*310 SLICE_16\[0\]\.RAM16\.SLICE\[0\]\.RAM8\.WORD\[1\]\.W\.BYTE\[0\]\.B\.CLK
*311 SLICE_16\[0\]\.RAM16\.SLICE\[0\]\.RAM8\.WORD\[1\]\.W\.BYTE\[0\]\.B\.CLK_B
*312 SLICE_16\[0\]\.RAM16\.SLICE\[0\]\.RAM8\.WORD\[1\]\.W\.BYTE\[0\]\.B\.GCLK
*313 SLICE_16\[0\]\.RAM16\.SLICE\[0\]\.RAM8\.WORD\[1\]\.W\.BYTE\[0\]\.B\.Q_WIRE\[0\]
*314 SLICE_16\[0\]\.RAM16\.SLICE\[0\]\.RAM8\.WORD\[1\]\.W\.BYTE\[0\]\.B\.Q_WIRE\[1\]
*315 SLICE_16\[0\]\.RAM16\.SLICE\[0\]\.RAM8\.WORD\[1\]\.W\.BYTE\[0\]\.B\.Q_WIRE\[2\]
*316 SLICE_16\[0\]\.RAM16\.SLICE\[0\]\.RAM8\.WORD\[1\]\.W\.BYTE\[0\]\.B\.Q_WIRE\[3\]
*317 SLICE_16\[0\]\.RAM16\.SLICE\[0\]\.RAM8\.WORD\[1\]\.W\.BYTE\[0\]\.B\.Q_WIRE\[4\]
*318 SLICE_16\[0\]\.RAM16\.SLICE\[0\]\.RAM8\.WORD\[1\]\.W\.BYTE\[0\]\.B\.Q_WIRE\[5\]
*319 SLICE_16\[0\]\.RAM16\.SLICE\[0\]\.RAM8\.WORD\[1\]\.W\.BYTE\[0\]\.B\.Q_WIRE\[6\]
*320 SLICE_16\[0\]\.RAM16\.SLICE\[0\]\.RAM8\.WORD\[1\]\.W\.BYTE\[0\]\.B\.Q_WIRE\[7\]
*321 SLICE_16\[0\]\.RAM16\.SLICE\[0\]\.RAM8\.WORD\[1\]\.W\.BYTE\[0\]\.B\.SEL0
*322 SLICE_16\[0\]\.RAM16\.SLICE\[0\]\.RAM8\.WORD\[1\]\.W\.BYTE\[0\]\.B\.SEL0_B
*323 SLICE_16\[0\]\.RAM16\.SLICE\[0\]\.RAM8\.WORD\[1\]\.W\.BYTE\[0\]\.B\.WE0_WIRE
*324 SLICE_16\[0\]\.RAM16\.SLICE\[0\]\.RAM8\.WORD\[1\]\.W\.BYTE\[1\]\.B\.CLK_B
*325 SLICE_16\[0\]\.RAM16\.SLICE\[0\]\.RAM8\.WORD\[1\]\.W\.BYTE\[1\]\.B\.GCLK
*326 SLICE_16\[0\]\.RAM16\.SLICE\[0\]\.RAM8\.WORD\[1\]\.W\.BYTE\[1\]\.B\.Q_WIRE\[0\]
*327 SLICE_16\[0\]\.RAM16\.SLICE\[0\]\.RAM8\.WORD\[1\]\.W\.BYTE\[1\]\.B\.Q_WIRE\[1\]
*328 SLICE_16\[0\]\.RAM16\.SLICE\[0\]\.RAM8\.WORD\[1\]\.W\.BYTE\[1\]\.B\.Q_WIRE\[2\]
*329 SLICE_16\[0\]\.RAM16\.SLICE\[0\]\.RAM8\.WORD\[1\]\.W\.BYTE\[1\]\.B\.Q_WIRE\[3\]
*330 SLICE_16\[0\]\.RAM16\.SLICE\[0\]\.RAM8\.WORD\[1\]\.W\.BYTE\[1\]\.B\.Q_WIRE\[4\]
*331 SLICE_16\[0\]\.RAM16\.SLICE\[0\]\.RAM8\.WORD\[1\]\.W\.BYTE\[1\]\.B\.Q_WIRE\[5\]
*332 SLICE_16\[0\]\.RAM16\.SLICE\[0\]\.RAM8\.WORD\[1\]\.W\.BYTE\[1\]\.B\.Q_WIRE\[6\]
*333 SLICE_16\[0\]\.RAM16\.SLICE\[0\]\.RAM8\.WORD\[1\]\.W\.BYTE\[1\]\.B\.Q_WIRE\[7\]
*334 SLICE_16\[0\]\.RAM16\.SLICE\[0\]\.RAM8\.WORD\[1\]\.W\.BYTE\[1\]\.B\.SEL0_B
*335 SLICE_16\[0\]\.RAM16\.SLICE\[0\]\.RAM8\.WORD\[1\]\.W\.BYTE\[1\]\.B\.WE0_WIRE
*336 SLICE_16\[0\]\.RAM16\.SLICE\[0\]\.RAM8\.WORD\[1\]\.W\.BYTE\[2\]\.B\.CLK_B
*337 SLICE_16\[0\]\.RAM16\.SLICE\[0\]\.RAM8\.WORD\[1\]\.W\.BYTE\[2\]\.B\.GCLK
*338 SLICE_16\[0\]\.RAM16\.SLICE\[0\]\.RAM8\.WORD\[1\]\.W\.BYTE\[2\]\.B\.Q_WIRE\[0\]
*339 SLICE_16\[0\]\.RAM16\.SLICE\[0\]\.RAM8\.WORD\[1\]\.W\.BYTE\[2\]\.B\.Q_WIRE\[1\]
*340 SLICE_16\[0\]\.RAM16\.SLICE\[0\]\.RAM8\.WORD\[1\]\.W\.BYTE\[2\]\.B\.Q_WIRE\[2\]
*341 SLICE_16\[0\]\.RAM16\.SLICE\[0\]\.RAM8\.WORD\[1\]\.W\.BYTE\[2\]\.B\.Q_WIRE\[3\]
*342 SLICE_16\[0\]\.RAM16\.SLICE\[0\]\.RAM8\.WORD\[1\]\.W\.BYTE\[2\]\.B\.Q_WIRE\[4\]
*343 SLICE_16\[0\]\.RAM16\.SLICE\[0\]\.RAM8\.WORD\[1\]\.W\.BYTE\[2\]\.B\.Q_WIRE\[5\]
*344 SLICE_16\[0\]\.RAM16\.SLICE\[0\]\.RAM8\.WORD\[1\]\.W\.BYTE\[2\]\.B\.Q_WIRE\[6\]
*345 SLICE_16\[0\]\.RAM16\.SLICE\[0\]\.RAM8\.WORD\[1\]\.W\.BYTE\[2\]\.B\.Q_WIRE\[7\]
*346 SLICE_16\[0\]\.RAM16\.SLICE\[0\]\.RAM8\.WORD\[1\]\.W\.BYTE\[2\]\.B\.SEL0_B
*347 SLICE_16\[0\]\.RAM16\.SLICE\[0\]\.RAM8\.WORD\[1\]\.W\.BYTE\[2\]\.B\.WE0_WIRE
*348 SLICE_16\[0\]\.RAM16\.SLICE\[0\]\.RAM8\.WORD\[1\]\.W\.BYTE\[3\]\.B\.CLK_B
*349 SLICE_16\[0\]\.RAM16\.SLICE\[0\]\.RAM8\.WORD\[1\]\.W\.BYTE\[3\]\.B\.GCLK
*350 SLICE_16\[0\]\.RAM16\.SLICE\[0\]\.RAM8\.WORD\[1\]\.W\.BYTE\[3\]\.B\.Q_WIRE\[0\]
*351 SLICE_16\[0\]\.RAM16\.SLICE\[0\]\.RAM8\.WORD\[1\]\.W\.BYTE\[3\]\.B\.Q_WIRE\[1\]
*352 SLICE_16\[0\]\.RAM16\.SLICE\[0\]\.RAM8\.WORD\[1\]\.W\.BYTE\[3\]\.B\.Q_WIRE\[2\]
*353 SLICE_16\[0\]\.RAM16\.SLICE\[0\]\.RAM8\.WORD\[1\]\.W\.BYTE\[3\]\.B\.Q_WIRE\[3\]
*354 SLICE_16\[0\]\.RAM16\.SLICE\[0\]\.RAM8\.WORD\[1\]\.W\.BYTE\[3\]\.B\.Q_WIRE\[4\]
*355 SLICE_16\[0\]\.RAM16\.SLICE\[0\]\.RAM8\.WORD\[1\]\.W\.BYTE\[3\]\.B\.Q_WIRE\[5\]
*356 SLICE_16\[0\]\.RAM16\.SLICE\[0\]\.RAM8\.WORD\[1\]\.W\.BYTE\[3\]\.B\.Q_WIRE\[6\]
*357 SLICE_16\[0\]\.RAM16\.SLICE\[0\]\.RAM8\.WORD\[1\]\.W\.BYTE\[3\]\.B\.Q_WIRE\[7\]
*358 SLICE_16\[0\]\.RAM16\.SLICE\[0\]\.RAM8\.WORD\[1\]\.W\.BYTE\[3\]\.B\.SEL0_B
*359 SLICE_16\[0\]\.RAM16\.SLICE\[0\]\.RAM8\.WORD\[1\]\.W\.BYTE\[3\]\.B\.WE0_WIRE
*360 SLICE_16\[0\]\.RAM16\.SLICE\[0\]\.RAM8\.WORD\[2\]\.W\.BYTE\[0\]\.B\.CLK
*361 SLICE_16\[0\]\.RAM16\.SLICE\[0\]\.RAM8\.WORD\[2\]\.W\.BYTE\[0\]\.B\.CLK_B
*362 SLICE_16\[0\]\.RAM16\.SLICE\[0\]\.RAM8\.WORD\[2\]\.W\.BYTE\[0\]\.B\.GCLK
*363 SLICE_16\[0\]\.RAM16\.SLICE\[0\]\.RAM8\.WORD\[2\]\.W\.BYTE\[0\]\.B\.Q_WIRE\[0\]
*364 SLICE_16\[0\]\.RAM16\.SLICE\[0\]\.RAM8\.WORD\[2\]\.W\.BYTE\[0\]\.B\.Q_WIRE\[1\]
*365 SLICE_16\[0\]\.RAM16\.SLICE\[0\]\.RAM8\.WORD\[2\]\.W\.BYTE\[0\]\.B\.Q_WIRE\[2\]
*366 SLICE_16\[0\]\.RAM16\.SLICE\[0\]\.RAM8\.WORD\[2\]\.W\.BYTE\[0\]\.B\.Q_WIRE\[3\]
*367 SLICE_16\[0\]\.RAM16\.SLICE\[0\]\.RAM8\.WORD\[2\]\.W\.BYTE\[0\]\.B\.Q_WIRE\[4\]
*368 SLICE_16\[0\]\.RAM16\.SLICE\[0\]\.RAM8\.WORD\[2\]\.W\.BYTE\[0\]\.B\.Q_WIRE\[5\]
*369 SLICE_16\[0\]\.RAM16\.SLICE\[0\]\.RAM8\.WORD\[2\]\.W\.BYTE\[0\]\.B\.Q_WIRE\[6\]
*370 SLICE_16\[0\]\.RAM16\.SLICE\[0\]\.RAM8\.WORD\[2\]\.W\.BYTE\[0\]\.B\.Q_WIRE\[7\]
*371 SLICE_16\[0\]\.RAM16\.SLICE\[0\]\.RAM8\.WORD\[2\]\.W\.BYTE\[0\]\.B\.SEL0
*372 SLICE_16\[0\]\.RAM16\.SLICE\[0\]\.RAM8\.WORD\[2\]\.W\.BYTE\[0\]\.B\.SEL0_B
*373 SLICE_16\[0\]\.RAM16\.SLICE\[0\]\.RAM8\.WORD\[2\]\.W\.BYTE\[0\]\.B\.WE0_WIRE
*374 SLICE_16\[0\]\.RAM16\.SLICE\[0\]\.RAM8\.WORD\[2\]\.W\.BYTE\[1\]\.B\.CLK_B
*375 SLICE_16\[0\]\.RAM16\.SLICE\[0\]\.RAM8\.WORD\[2\]\.W\.BYTE\[1\]\.B\.GCLK
*376 SLICE_16\[0\]\.RAM16\.SLICE\[0\]\.RAM8\.WORD\[2\]\.W\.BYTE\[1\]\.B\.Q_WIRE\[0\]
*377 SLICE_16\[0\]\.RAM16\.SLICE\[0\]\.RAM8\.WORD\[2\]\.W\.BYTE\[1\]\.B\.Q_WIRE\[1\]
*378 SLICE_16\[0\]\.RAM16\.SLICE\[0\]\.RAM8\.WORD\[2\]\.W\.BYTE\[1\]\.B\.Q_WIRE\[2\]
*379 SLICE_16\[0\]\.RAM16\.SLICE\[0\]\.RAM8\.WORD\[2\]\.W\.BYTE\[1\]\.B\.Q_WIRE\[3\]
*380 SLICE_16\[0\]\.RAM16\.SLICE\[0\]\.RAM8\.WORD\[2\]\.W\.BYTE\[1\]\.B\.Q_WIRE\[4\]
*381 SLICE_16\[0\]\.RAM16\.SLICE\[0\]\.RAM8\.WORD\[2\]\.W\.BYTE\[1\]\.B\.Q_WIRE\[5\]
*382 SLICE_16\[0\]\.RAM16\.SLICE\[0\]\.RAM8\.WORD\[2\]\.W\.BYTE\[1\]\.B\.Q_WIRE\[6\]
*383 SLICE_16\[0\]\.RAM16\.SLICE\[0\]\.RAM8\.WORD\[2\]\.W\.BYTE\[1\]\.B\.Q_WIRE\[7\]
*384 SLICE_16\[0\]\.RAM16\.SLICE\[0\]\.RAM8\.WORD\[2\]\.W\.BYTE\[1\]\.B\.SEL0_B
*385 SLICE_16\[0\]\.RAM16\.SLICE\[0\]\.RAM8\.WORD\[2\]\.W\.BYTE\[1\]\.B\.WE0_WIRE
*386 SLICE_16\[0\]\.RAM16\.SLICE\[0\]\.RAM8\.WORD\[2\]\.W\.BYTE\[2\]\.B\.CLK_B
*387 SLICE_16\[0\]\.RAM16\.SLICE\[0\]\.RAM8\.WORD\[2\]\.W\.BYTE\[2\]\.B\.GCLK
*388 SLICE_16\[0\]\.RAM16\.SLICE\[0\]\.RAM8\.WORD\[2\]\.W\.BYTE\[2\]\.B\.Q_WIRE\[0\]
*389 SLICE_16\[0\]\.RAM16\.SLICE\[0\]\.RAM8\.WORD\[2\]\.W\.BYTE\[2\]\.B\.Q_WIRE\[1\]
*390 SLICE_16\[0\]\.RAM16\.SLICE\[0\]\.RAM8\.WORD\[2\]\.W\.BYTE\[2\]\.B\.Q_WIRE\[2\]
*391 SLICE_16\[0\]\.RAM16\.SLICE\[0\]\.RAM8\.WORD\[2\]\.W\.BYTE\[2\]\.B\.Q_WIRE\[3\]
*392 SLICE_16\[0\]\.RAM16\.SLICE\[0\]\.RAM8\.WORD\[2\]\.W\.BYTE\[2\]\.B\.Q_WIRE\[4\]
*393 SLICE_16\[0\]\.RAM16\.SLICE\[0\]\.RAM8\.WORD\[2\]\.W\.BYTE\[2\]\.B\.Q_WIRE\[5\]
*394 SLICE_16\[0\]\.RAM16\.SLICE\[0\]\.RAM8\.WORD\[2\]\.W\.BYTE\[2\]\.B\.Q_WIRE\[6\]
*395 SLICE_16\[0\]\.RAM16\.SLICE\[0\]\.RAM8\.WORD\[2\]\.W\.BYTE\[2\]\.B\.Q_WIRE\[7\]
*396 SLICE_16\[0\]\.RAM16\.SLICE\[0\]\.RAM8\.WORD\[2\]\.W\.BYTE\[2\]\.B\.SEL0_B
*397 SLICE_16\[0\]\.RAM16\.SLICE\[0\]\.RAM8\.WORD\[2\]\.W\.BYTE\[2\]\.B\.WE0_WIRE
*398 SLICE_16\[0\]\.RAM16\.SLICE\[0\]\.RAM8\.WORD\[2\]\.W\.BYTE\[3\]\.B\.CLK_B
*399 SLICE_16\[0\]\.RAM16\.SLICE\[0\]\.RAM8\.WORD\[2\]\.W\.BYTE\[3\]\.B\.GCLK
*400 SLICE_16\[0\]\.RAM16\.SLICE\[0\]\.RAM8\.WORD\[2\]\.W\.BYTE\[3\]\.B\.Q_WIRE\[0\]
*401 SLICE_16\[0\]\.RAM16\.SLICE\[0\]\.RAM8\.WORD\[2\]\.W\.BYTE\[3\]\.B\.Q_WIRE\[1\]
*402 SLICE_16\[0\]\.RAM16\.SLICE\[0\]\.RAM8\.WORD\[2\]\.W\.BYTE\[3\]\.B\.Q_WIRE\[2\]
*403 SLICE_16\[0\]\.RAM16\.SLICE\[0\]\.RAM8\.WORD\[2\]\.W\.BYTE\[3\]\.B\.Q_WIRE\[3\]
*404 SLICE_16\[0\]\.RAM16\.SLICE\[0\]\.RAM8\.WORD\[2\]\.W\.BYTE\[3\]\.B\.Q_WIRE\[4\]
*405 SLICE_16\[0\]\.RAM16\.SLICE\[0\]\.RAM8\.WORD\[2\]\.W\.BYTE\[3\]\.B\.Q_WIRE\[5\]
*406 SLICE_16\[0\]\.RAM16\.SLICE\[0\]\.RAM8\.WORD\[2\]\.W\.BYTE\[3\]\.B\.Q_WIRE\[6\]
*407 SLICE_16\[0\]\.RAM16\.SLICE\[0\]\.RAM8\.WORD\[2\]\.W\.BYTE\[3\]\.B\.Q_WIRE\[7\]
*408 SLICE_16\[0\]\.RAM16\.SLICE\[0\]\.RAM8\.WORD\[2\]\.W\.BYTE\[3\]\.B\.SEL0_B
*409 SLICE_16\[0\]\.RAM16\.SLICE\[0\]\.RAM8\.WORD\[2\]\.W\.BYTE\[3\]\.B\.WE0_WIRE
*410 SLICE_16\[0\]\.RAM16\.SLICE\[0\]\.RAM8\.WORD\[3\]\.W\.BYTE\[0\]\.B\.CLK
*411 SLICE_16\[0\]\.RAM16\.SLICE\[0\]\.RAM8\.WORD\[3\]\.W\.BYTE\[0\]\.B\.CLK_B
*412 SLICE_16\[0\]\.RAM16\.SLICE\[0\]\.RAM8\.WORD\[3\]\.W\.BYTE\[0\]\.B\.GCLK
*413 SLICE_16\[0\]\.RAM16\.SLICE\[0\]\.RAM8\.WORD\[3\]\.W\.BYTE\[0\]\.B\.Q_WIRE\[0\]
*414 SLICE_16\[0\]\.RAM16\.SLICE\[0\]\.RAM8\.WORD\[3\]\.W\.BYTE\[0\]\.B\.Q_WIRE\[1\]
*415 SLICE_16\[0\]\.RAM16\.SLICE\[0\]\.RAM8\.WORD\[3\]\.W\.BYTE\[0\]\.B\.Q_WIRE\[2\]
*416 SLICE_16\[0\]\.RAM16\.SLICE\[0\]\.RAM8\.WORD\[3\]\.W\.BYTE\[0\]\.B\.Q_WIRE\[3\]
*417 SLICE_16\[0\]\.RAM16\.SLICE\[0\]\.RAM8\.WORD\[3\]\.W\.BYTE\[0\]\.B\.Q_WIRE\[4\]
*418 SLICE_16\[0\]\.RAM16\.SLICE\[0\]\.RAM8\.WORD\[3\]\.W\.BYTE\[0\]\.B\.Q_WIRE\[5\]
*419 SLICE_16\[0\]\.RAM16\.SLICE\[0\]\.RAM8\.WORD\[3\]\.W\.BYTE\[0\]\.B\.Q_WIRE\[6\]
*420 SLICE_16\[0\]\.RAM16\.SLICE\[0\]\.RAM8\.WORD\[3\]\.W\.BYTE\[0\]\.B\.Q_WIRE\[7\]
*421 SLICE_16\[0\]\.RAM16\.SLICE\[0\]\.RAM8\.WORD\[3\]\.W\.BYTE\[0\]\.B\.SEL0
*422 SLICE_16\[0\]\.RAM16\.SLICE\[0\]\.RAM8\.WORD\[3\]\.W\.BYTE\[0\]\.B\.SEL0_B
*423 SLICE_16\[0\]\.RAM16\.SLICE\[0\]\.RAM8\.WORD\[3\]\.W\.BYTE\[0\]\.B\.WE0_WIRE
*424 SLICE_16\[0\]\.RAM16\.SLICE\[0\]\.RAM8\.WORD\[3\]\.W\.BYTE\[1\]\.B\.CLK_B
*425 SLICE_16\[0\]\.RAM16\.SLICE\[0\]\.RAM8\.WORD\[3\]\.W\.BYTE\[1\]\.B\.GCLK
*426 SLICE_16\[0\]\.RAM16\.SLICE\[0\]\.RAM8\.WORD\[3\]\.W\.BYTE\[1\]\.B\.Q_WIRE\[0\]
*427 SLICE_16\[0\]\.RAM16\.SLICE\[0\]\.RAM8\.WORD\[3\]\.W\.BYTE\[1\]\.B\.Q_WIRE\[1\]
*428 SLICE_16\[0\]\.RAM16\.SLICE\[0\]\.RAM8\.WORD\[3\]\.W\.BYTE\[1\]\.B\.Q_WIRE\[2\]
*429 SLICE_16\[0\]\.RAM16\.SLICE\[0\]\.RAM8\.WORD\[3\]\.W\.BYTE\[1\]\.B\.Q_WIRE\[3\]
*430 SLICE_16\[0\]\.RAM16\.SLICE\[0\]\.RAM8\.WORD\[3\]\.W\.BYTE\[1\]\.B\.Q_WIRE\[4\]
*431 SLICE_16\[0\]\.RAM16\.SLICE\[0\]\.RAM8\.WORD\[3\]\.W\.BYTE\[1\]\.B\.Q_WIRE\[5\]
*432 SLICE_16\[0\]\.RAM16\.SLICE\[0\]\.RAM8\.WORD\[3\]\.W\.BYTE\[1\]\.B\.Q_WIRE\[6\]
*433 SLICE_16\[0\]\.RAM16\.SLICE\[0\]\.RAM8\.WORD\[3\]\.W\.BYTE\[1\]\.B\.Q_WIRE\[7\]
*434 SLICE_16\[0\]\.RAM16\.SLICE\[0\]\.RAM8\.WORD\[3\]\.W\.BYTE\[1\]\.B\.SEL0_B
*435 SLICE_16\[0\]\.RAM16\.SLICE\[0\]\.RAM8\.WORD\[3\]\.W\.BYTE\[1\]\.B\.WE0_WIRE
*436 SLICE_16\[0\]\.RAM16\.SLICE\[0\]\.RAM8\.WORD\[3\]\.W\.BYTE\[2\]\.B\.CLK_B
*437 SLICE_16\[0\]\.RAM16\.SLICE\[0\]\.RAM8\.WORD\[3\]\.W\.BYTE\[2\]\.B\.GCLK
*438 SLICE_16\[0\]\.RAM16\.SLICE\[0\]\.RAM8\.WORD\[3\]\.W\.BYTE\[2\]\.B\.Q_WIRE\[0\]
*439 SLICE_16\[0\]\.RAM16\.SLICE\[0\]\.RAM8\.WORD\[3\]\.W\.BYTE\[2\]\.B\.Q_WIRE\[1\]
*440 SLICE_16\[0\]\.RAM16\.SLICE\[0\]\.RAM8\.WORD\[3\]\.W\.BYTE\[2\]\.B\.Q_WIRE\[2\]
*441 SLICE_16\[0\]\.RAM16\.SLICE\[0\]\.RAM8\.WORD\[3\]\.W\.BYTE\[2\]\.B\.Q_WIRE\[3\]
*442 SLICE_16\[0\]\.RAM16\.SLICE\[0\]\.RAM8\.WORD\[3\]\.W\.BYTE\[2\]\.B\.Q_WIRE\[4\]
*443 SLICE_16\[0\]\.RAM16\.SLICE\[0\]\.RAM8\.WORD\[3\]\.W\.BYTE\[2\]\.B\.Q_WIRE\[5\]
*444 SLICE_16\[0\]\.RAM16\.SLICE\[0\]\.RAM8\.WORD\[3\]\.W\.BYTE\[2\]\.B\.Q_WIRE\[6\]
*445 SLICE_16\[0\]\.RAM16\.SLICE\[0\]\.RAM8\.WORD\[3\]\.W\.BYTE\[2\]\.B\.Q_WIRE\[7\]
*446 SLICE_16\[0\]\.RAM16\.SLICE\[0\]\.RAM8\.WORD\[3\]\.W\.BYTE\[2\]\.B\.SEL0_B
*447 SLICE_16\[0\]\.RAM16\.SLICE\[0\]\.RAM8\.WORD\[3\]\.W\.BYTE\[2\]\.B\.WE0_WIRE
*448 SLICE_16\[0\]\.RAM16\.SLICE\[0\]\.RAM8\.WORD\[3\]\.W\.BYTE\[3\]\.B\.CLK_B
*449 SLICE_16\[0\]\.RAM16\.SLICE\[0\]\.RAM8\.WORD\[3\]\.W\.BYTE\[3\]\.B\.GCLK
*450 SLICE_16\[0\]\.RAM16\.SLICE\[0\]\.RAM8\.WORD\[3\]\.W\.BYTE\[3\]\.B\.Q_WIRE\[0\]
*451 SLICE_16\[0\]\.RAM16\.SLICE\[0\]\.RAM8\.WORD\[3\]\.W\.BYTE\[3\]\.B\.Q_WIRE\[1\]
*452 SLICE_16\[0\]\.RAM16\.SLICE\[0\]\.RAM8\.WORD\[3\]\.W\.BYTE\[3\]\.B\.Q_WIRE\[2\]
*453 SLICE_16\[0\]\.RAM16\.SLICE\[0\]\.RAM8\.WORD\[3\]\.W\.BYTE\[3\]\.B\.Q_WIRE\[3\]
*454 SLICE_16\[0\]\.RAM16\.SLICE\[0\]\.RAM8\.WORD\[3\]\.W\.BYTE\[3\]\.B\.Q_WIRE\[4\]
*455 SLICE_16\[0\]\.RAM16\.SLICE\[0\]\.RAM8\.WORD\[3\]\.W\.BYTE\[3\]\.B\.Q_WIRE\[5\]
*456 SLICE_16\[0\]\.RAM16\.SLICE\[0\]\.RAM8\.WORD\[3\]\.W\.BYTE\[3\]\.B\.Q_WIRE\[6\]
*457 SLICE_16\[0\]\.RAM16\.SLICE\[0\]\.RAM8\.WORD\[3\]\.W\.BYTE\[3\]\.B\.Q_WIRE\[7\]
*458 SLICE_16\[0\]\.RAM16\.SLICE\[0\]\.RAM8\.WORD\[3\]\.W\.BYTE\[3\]\.B\.SEL0_B
*459 SLICE_16\[0\]\.RAM16\.SLICE\[0\]\.RAM8\.WORD\[3\]\.W\.BYTE\[3\]\.B\.WE0_WIRE
*460 SLICE_16\[0\]\.RAM16\.SLICE\[0\]\.RAM8\.WORD\[4\]\.W\.BYTE\[0\]\.B\.CLK
*461 SLICE_16\[0\]\.RAM16\.SLICE\[0\]\.RAM8\.WORD\[4\]\.W\.BYTE\[0\]\.B\.CLK_B
*462 SLICE_16\[0\]\.RAM16\.SLICE\[0\]\.RAM8\.WORD\[4\]\.W\.BYTE\[0\]\.B\.GCLK
*463 SLICE_16\[0\]\.RAM16\.SLICE\[0\]\.RAM8\.WORD\[4\]\.W\.BYTE\[0\]\.B\.Q_WIRE\[0\]
*464 SLICE_16\[0\]\.RAM16\.SLICE\[0\]\.RAM8\.WORD\[4\]\.W\.BYTE\[0\]\.B\.Q_WIRE\[1\]
*465 SLICE_16\[0\]\.RAM16\.SLICE\[0\]\.RAM8\.WORD\[4\]\.W\.BYTE\[0\]\.B\.Q_WIRE\[2\]
*466 SLICE_16\[0\]\.RAM16\.SLICE\[0\]\.RAM8\.WORD\[4\]\.W\.BYTE\[0\]\.B\.Q_WIRE\[3\]
*467 SLICE_16\[0\]\.RAM16\.SLICE\[0\]\.RAM8\.WORD\[4\]\.W\.BYTE\[0\]\.B\.Q_WIRE\[4\]
*468 SLICE_16\[0\]\.RAM16\.SLICE\[0\]\.RAM8\.WORD\[4\]\.W\.BYTE\[0\]\.B\.Q_WIRE\[5\]
*469 SLICE_16\[0\]\.RAM16\.SLICE\[0\]\.RAM8\.WORD\[4\]\.W\.BYTE\[0\]\.B\.Q_WIRE\[6\]
*470 SLICE_16\[0\]\.RAM16\.SLICE\[0\]\.RAM8\.WORD\[4\]\.W\.BYTE\[0\]\.B\.Q_WIRE\[7\]
*471 SLICE_16\[0\]\.RAM16\.SLICE\[0\]\.RAM8\.WORD\[4\]\.W\.BYTE\[0\]\.B\.SEL0
*472 SLICE_16\[0\]\.RAM16\.SLICE\[0\]\.RAM8\.WORD\[4\]\.W\.BYTE\[0\]\.B\.SEL0_B
*473 SLICE_16\[0\]\.RAM16\.SLICE\[0\]\.RAM8\.WORD\[4\]\.W\.BYTE\[0\]\.B\.WE0_WIRE
*474 SLICE_16\[0\]\.RAM16\.SLICE\[0\]\.RAM8\.WORD\[4\]\.W\.BYTE\[1\]\.B\.CLK_B
*475 SLICE_16\[0\]\.RAM16\.SLICE\[0\]\.RAM8\.WORD\[4\]\.W\.BYTE\[1\]\.B\.GCLK
*476 SLICE_16\[0\]\.RAM16\.SLICE\[0\]\.RAM8\.WORD\[4\]\.W\.BYTE\[1\]\.B\.Q_WIRE\[0\]
*477 SLICE_16\[0\]\.RAM16\.SLICE\[0\]\.RAM8\.WORD\[4\]\.W\.BYTE\[1\]\.B\.Q_WIRE\[1\]
*478 SLICE_16\[0\]\.RAM16\.SLICE\[0\]\.RAM8\.WORD\[4\]\.W\.BYTE\[1\]\.B\.Q_WIRE\[2\]
*479 SLICE_16\[0\]\.RAM16\.SLICE\[0\]\.RAM8\.WORD\[4\]\.W\.BYTE\[1\]\.B\.Q_WIRE\[3\]
*480 SLICE_16\[0\]\.RAM16\.SLICE\[0\]\.RAM8\.WORD\[4\]\.W\.BYTE\[1\]\.B\.Q_WIRE\[4\]
*481 SLICE_16\[0\]\.RAM16\.SLICE\[0\]\.RAM8\.WORD\[4\]\.W\.BYTE\[1\]\.B\.Q_WIRE\[5\]
*482 SLICE_16\[0\]\.RAM16\.SLICE\[0\]\.RAM8\.WORD\[4\]\.W\.BYTE\[1\]\.B\.Q_WIRE\[6\]
*483 SLICE_16\[0\]\.RAM16\.SLICE\[0\]\.RAM8\.WORD\[4\]\.W\.BYTE\[1\]\.B\.Q_WIRE\[7\]
*484 SLICE_16\[0\]\.RAM16\.SLICE\[0\]\.RAM8\.WORD\[4\]\.W\.BYTE\[1\]\.B\.SEL0_B
*485 SLICE_16\[0\]\.RAM16\.SLICE\[0\]\.RAM8\.WORD\[4\]\.W\.BYTE\[1\]\.B\.WE0_WIRE
*486 SLICE_16\[0\]\.RAM16\.SLICE\[0\]\.RAM8\.WORD\[4\]\.W\.BYTE\[2\]\.B\.CLK_B
*487 SLICE_16\[0\]\.RAM16\.SLICE\[0\]\.RAM8\.WORD\[4\]\.W\.BYTE\[2\]\.B\.GCLK
*488 SLICE_16\[0\]\.RAM16\.SLICE\[0\]\.RAM8\.WORD\[4\]\.W\.BYTE\[2\]\.B\.Q_WIRE\[0\]
*489 SLICE_16\[0\]\.RAM16\.SLICE\[0\]\.RAM8\.WORD\[4\]\.W\.BYTE\[2\]\.B\.Q_WIRE\[1\]
*490 SLICE_16\[0\]\.RAM16\.SLICE\[0\]\.RAM8\.WORD\[4\]\.W\.BYTE\[2\]\.B\.Q_WIRE\[2\]
*491 SLICE_16\[0\]\.RAM16\.SLICE\[0\]\.RAM8\.WORD\[4\]\.W\.BYTE\[2\]\.B\.Q_WIRE\[3\]
*492 SLICE_16\[0\]\.RAM16\.SLICE\[0\]\.RAM8\.WORD\[4\]\.W\.BYTE\[2\]\.B\.Q_WIRE\[4\]
*493 SLICE_16\[0\]\.RAM16\.SLICE\[0\]\.RAM8\.WORD\[4\]\.W\.BYTE\[2\]\.B\.Q_WIRE\[5\]
*494 SLICE_16\[0\]\.RAM16\.SLICE\[0\]\.RAM8\.WORD\[4\]\.W\.BYTE\[2\]\.B\.Q_WIRE\[6\]
*495 SLICE_16\[0\]\.RAM16\.SLICE\[0\]\.RAM8\.WORD\[4\]\.W\.BYTE\[2\]\.B\.Q_WIRE\[7\]
*496 SLICE_16\[0\]\.RAM16\.SLICE\[0\]\.RAM8\.WORD\[4\]\.W\.BYTE\[2\]\.B\.SEL0_B
*497 SLICE_16\[0\]\.RAM16\.SLICE\[0\]\.RAM8\.WORD\[4\]\.W\.BYTE\[2\]\.B\.WE0_WIRE
*498 SLICE_16\[0\]\.RAM16\.SLICE\[0\]\.RAM8\.WORD\[4\]\.W\.BYTE\[3\]\.B\.CLK_B
*499 SLICE_16\[0\]\.RAM16\.SLICE\[0\]\.RAM8\.WORD\[4\]\.W\.BYTE\[3\]\.B\.GCLK
*500 SLICE_16\[0\]\.RAM16\.SLICE\[0\]\.RAM8\.WORD\[4\]\.W\.BYTE\[3\]\.B\.Q_WIRE\[0\]
*501 SLICE_16\[0\]\.RAM16\.SLICE\[0\]\.RAM8\.WORD\[4\]\.W\.BYTE\[3\]\.B\.Q_WIRE\[1\]
*502 SLICE_16\[0\]\.RAM16\.SLICE\[0\]\.RAM8\.WORD\[4\]\.W\.BYTE\[3\]\.B\.Q_WIRE\[2\]
*503 SLICE_16\[0\]\.RAM16\.SLICE\[0\]\.RAM8\.WORD\[4\]\.W\.BYTE\[3\]\.B\.Q_WIRE\[3\]
*504 SLICE_16\[0\]\.RAM16\.SLICE\[0\]\.RAM8\.WORD\[4\]\.W\.BYTE\[3\]\.B\.Q_WIRE\[4\]
*505 SLICE_16\[0\]\.RAM16\.SLICE\[0\]\.RAM8\.WORD\[4\]\.W\.BYTE\[3\]\.B\.Q_WIRE\[5\]
*506 SLICE_16\[0\]\.RAM16\.SLICE\[0\]\.RAM8\.WORD\[4\]\.W\.BYTE\[3\]\.B\.Q_WIRE\[6\]
*507 SLICE_16\[0\]\.RAM16\.SLICE\[0\]\.RAM8\.WORD\[4\]\.W\.BYTE\[3\]\.B\.Q_WIRE\[7\]
*508 SLICE_16\[0\]\.RAM16\.SLICE\[0\]\.RAM8\.WORD\[4\]\.W\.BYTE\[3\]\.B\.SEL0_B
*509 SLICE_16\[0\]\.RAM16\.SLICE\[0\]\.RAM8\.WORD\[4\]\.W\.BYTE\[3\]\.B\.WE0_WIRE
*510 SLICE_16\[0\]\.RAM16\.SLICE\[0\]\.RAM8\.WORD\[5\]\.W\.BYTE\[0\]\.B\.CLK
*511 SLICE_16\[0\]\.RAM16\.SLICE\[0\]\.RAM8\.WORD\[5\]\.W\.BYTE\[0\]\.B\.CLK_B
*512 SLICE_16\[0\]\.RAM16\.SLICE\[0\]\.RAM8\.WORD\[5\]\.W\.BYTE\[0\]\.B\.GCLK
*513 SLICE_16\[0\]\.RAM16\.SLICE\[0\]\.RAM8\.WORD\[5\]\.W\.BYTE\[0\]\.B\.Q_WIRE\[0\]
*514 SLICE_16\[0\]\.RAM16\.SLICE\[0\]\.RAM8\.WORD\[5\]\.W\.BYTE\[0\]\.B\.Q_WIRE\[1\]
*515 SLICE_16\[0\]\.RAM16\.SLICE\[0\]\.RAM8\.WORD\[5\]\.W\.BYTE\[0\]\.B\.Q_WIRE\[2\]
*516 SLICE_16\[0\]\.RAM16\.SLICE\[0\]\.RAM8\.WORD\[5\]\.W\.BYTE\[0\]\.B\.Q_WIRE\[3\]
*517 SLICE_16\[0\]\.RAM16\.SLICE\[0\]\.RAM8\.WORD\[5\]\.W\.BYTE\[0\]\.B\.Q_WIRE\[4\]
*518 SLICE_16\[0\]\.RAM16\.SLICE\[0\]\.RAM8\.WORD\[5\]\.W\.BYTE\[0\]\.B\.Q_WIRE\[5\]
*519 SLICE_16\[0\]\.RAM16\.SLICE\[0\]\.RAM8\.WORD\[5\]\.W\.BYTE\[0\]\.B\.Q_WIRE\[6\]
*520 SLICE_16\[0\]\.RAM16\.SLICE\[0\]\.RAM8\.WORD\[5\]\.W\.BYTE\[0\]\.B\.Q_WIRE\[7\]
*521 SLICE_16\[0\]\.RAM16\.SLICE\[0\]\.RAM8\.WORD\[5\]\.W\.BYTE\[0\]\.B\.SEL0
*522 SLICE_16\[0\]\.RAM16\.SLICE\[0\]\.RAM8\.WORD\[5\]\.W\.BYTE\[0\]\.B\.SEL0_B
*523 SLICE_16\[0\]\.RAM16\.SLICE\[0\]\.RAM8\.WORD\[5\]\.W\.BYTE\[0\]\.B\.WE0_WIRE
*524 SLICE_16\[0\]\.RAM16\.SLICE\[0\]\.RAM8\.WORD\[5\]\.W\.BYTE\[1\]\.B\.CLK_B
*525 SLICE_16\[0\]\.RAM16\.SLICE\[0\]\.RAM8\.WORD\[5\]\.W\.BYTE\[1\]\.B\.GCLK
*526 SLICE_16\[0\]\.RAM16\.SLICE\[0\]\.RAM8\.WORD\[5\]\.W\.BYTE\[1\]\.B\.Q_WIRE\[0\]
*527 SLICE_16\[0\]\.RAM16\.SLICE\[0\]\.RAM8\.WORD\[5\]\.W\.BYTE\[1\]\.B\.Q_WIRE\[1\]